!-Generator IDFEditor 1.50
!-Option OriginalOrderTop UseSpecialFormat

!-NOTE: All comments with '!-' are ignored by the IDFEditor and are generated automatically.
!-      Use '!' comments if they need to be retained when using the IDFEditor.

EnergyManagementSystem:Actuator,
    CoreZoneDECOutletNode_setpoint,  !- Name
    Core Zone DEC Outlet Node,  !- Actuated Component Unique Name
    System Node Setpoint,    !- Actuated Component Type
    Temperature Setpoint;    !- Actuated Component Control Type

EnergyManagementSystem:Actuator,
    CoreZoneIECOutletNode_setpoint,  !- Name
    Core Zone IEC Outlet Node,  !- Actuated Component Unique Name
    System Node Setpoint,    !- Actuated Component Type
    Temperature Setpoint;    !- Actuated Component Control Type

EnergyManagementSystem:Actuator,
    CoreZoneCCoilAirOutletNode_setpoint,  !- Name
    Core Zone CCoil Air Outlet Node,  !- Actuated Component Unique Name
    System Node Setpoint,    !- Actuated Component Type
    Temperature Setpoint;    !- Actuated Component Control Type

EnergyManagementSystem:Actuator,
    CoreAirLoopOutletNode_setpoint,  !- Name
    Core Air Loop Outlet Node,  !- Actuated Component Unique Name
    System Node Setpoint,    !- Actuated Component Type
    Temperature Setpoint;    !- Actuated Component Control Type

EnergyManagementSystem:Sensor,
    IT_Equip_Power,          !- Name
    Whole Building,          !- Output:Variable or Output:Meter Index Key Name
    Facility Total Building Electric Demand Power;  !- Output:Variable or Output:Meter Name

EnergyManagementSystem:Sensor,
    Whole_Building_Power,    !- Name
    Whole Building,          !- Output:Variable or Output:Meter Index Key Name
    Facility Total Electric Demand Power;  !- Output:Variable or Output:Meter Name

EnergyManagementSystem:Sensor,
    Whole_HVAC_Power,        !- Name
    Whole Building,          !- Output:Variable or Output:Meter Index Key Name
    Facility Total HVAC Electric Demand Power;  !- Output:Variable or Output:Meter Name

EnergyManagementSystem:Sensor,
    OutdoorTemp,             !- Name
    Environment,             !- Output:Variable or Output:Meter Index Key Name
    Site Outdoor Air Drybulb Temperature;  !- Output:Variable or Output:Meter Name

EnergyManagementSystem:Sensor,
    CoreZoneTemp,            !- Name
    CORE,                    !- Output:Variable or Output:Meter Index Key Name
    Zone Mean Air Temperature;  !- Output:Variable or Output:Meter Name

Site:GroundTemperature:Shallow,20.03,20.03,20.13,20.30,20.43,20.52,20.62,20.77,20.78,20.55,20.44,20.20;
Site:GroundTemperature:Deep,16.1,16.1,16.1,16.1,16.1,16.1,16.1,16.1,16.1,16.1,16.1,16.1;

ZoneControl:Thermostat,
    Core Zone Thermostat,    !- Name
    CORE,                    !- Zone or ZoneList Name
    Zone Control Type Sched, !- Control Type Schedule Name
    ThermostatSetpoint:DualSetpoint,  !- Control 1 Object Type
    Temperature Setpoints;   !- Control 1 Name

ThermostatSetpoint:DualSetpoint,
    Temperature Setpoints,   !- Name
    Heating Setpoints,       !- Heating Setpoint Temperature Schedule Name
    Cooling Setpoints;       !- Cooling Setpoint Temperature Schedule Name

Schedule:Compact,
    Zone Control Type Sched, !- Name
    Control Type,            !- Schedule Type Limits Name
    Through: 12/31,          !- Field 1
    For: AllDays,            !- Field 2
    Until: 24:00, 4;         !- Field 4

AirTerminal:SingleDuct:VAV:NoReheat,
    Core Zone VAV System,    !- Name
    FanAndCoilAvailSched,    !- Availability Schedule Name
    Core Zone Inlet Node,    !- Air Outlet Node Name
    Core Zone ATU Inlet Node,!- Air Inlet Node Name
    autosize,                !- Maximum Air Flow Rate {m3/s}
    Constant,                !- Zone Minimum Air Flow Input Method
    0.40;                    !- Constant Minimum Air Flow Fraction

Schedule:Compact,
    FanAndCoilAvailSched,    !- Name
    Fraction,                !- Schedule Type Limits Name
    Through: 12/31,          !- Field 1
    For: AllDays,            !- Field 2
    Until: 24:00, 1.0;       !- Field 4

NodeList,
    Core Zone Inlets,        !- Name
    Core Zone Inlet Node;    !- Node 1 Name

ZoneHVAC:AirDistributionUnit,
    Core Zone ATU,           !- Name
    Core Zone Inlet Node,    !- Air Distribution Unit Outlet Node Name
    AirTerminal:SingleDuct:VAV:NoReheat,  !- Air Terminal Object Type
    Core Zone VAV System;    !- Air Terminal Name

ZoneHVAC:EquipmentList,
    Core Zone Equipment List,!- Name
    ZoneHVAC:AirDistributionUnit,  !- Zone Equipment 1 Object Type
    Core Zone ATU,           !- Zone Equipment 1 Name
    1,                       !- Zone Equipment 1 Cooling Sequence
    1;                       !- Zone Equipment 1 Heating or No-Load Sequence

ZoneHVAC:EquipmentConnections,
    PLENUM,                  !- Zone Name
    Core Zone Equipment List,!- Zone Conditioning Equipment List Name
    Core Zone Inlets,        !- Zone Air Inlet Node or NodeList Name
    ,                        !- Zone Air Exhaust Node or NodeList Name
    Core Zone Air Node,      !- Zone Air Node Name
    Core Zone Return Node;   !- Zone Return Air Node or NodeList Name

Fan:VariableVolume,
    Core Zone Supply Fan,    !- Name
    FanAndCoilAvailSched,    !- Availability Schedule Name
    0.7,                     !- Fan Total Efficiency
    300.0,                   !- Pressure Rise {Pa}
    autosize,                !- Maximum Flow Rate {m3/s}
    Fraction,                !- Fan Power Minimum Flow Rate Input Method
    0.25,                    !- Fan Power Minimum Flow Fraction
    ,                        !- Fan Power Minimum Air Flow Rate {m3/s}
    0.9,                     !- Motor Efficiency
    0.0,                     !- Motor In Airstream Fraction
    0.35071223,              !- Fan Power Coefficient 1
    0.30850535,              !- Fan Power Coefficient 2
    -0.54137364,             !- Fan Power Coefficient 3
    0.87198823,              !- Fan Power Coefficient 4
    0.000,                   !- Fan Power Coefficient 5
    Core Zone Mixed Air Node,!- Air Inlet Node Name
    Core Zone Supply Fan Outlet Node;  !- Air Outlet Node Name

Coil:Cooling:Water,
    Core Zone CW Cooling Coil,  !- Name
    CoreChWaterCoilAvailSched,  !- Availability Schedule Name
    autosize,                !- Design Water Flow Rate {m3/s}
    autosize,                !- Design Air Flow Rate {m3/s}
    autosize,                !- Design Inlet Water Temperature {C}
    autosize,                !- Design Inlet Air Temperature {C}
    autosize,                !- Design Outlet Air Temperature {C}
    autosize,                !- Design Inlet Air Humidity Ratio {kgWater/kgDryAir}
    autosize,                !- Design Outlet Air Humidity Ratio {kgWater/kgDryAir}
    Core CWCoil Water Inlet Node,  !- Water Inlet Node Name
    Core CWCoil Water Outlet Node,  !- Water Outlet Node Name
    Core Zone CCoil Air Outlet Node,  !- Air Inlet Node Name
    Core Air Loop Outlet Node,  !- Air Outlet Node Name
    SimpleAnalysis,          !- Type of Analysis
    CrossFlow;               !- Heat Exchanger Configuration

Schedule:Compact,
    CoreChWaterCoilAvailSched,  !- Name
    Fraction,                !- Schedule Type Limits Name
    Through: 12/31,          !- Field 1
    For: AllDays,            !- Field 2
    Until: 24:00, 0.0;       !- Field 4

Branch,
    Core Zone Air Loop Main Branch,  !- Name
    ,                        !- Pressure Drop Curve Name
    AirLoopHVAC:OutdoorAirSystem,  !- Component 1 Object Type
    Core Zone OA System,     !- Component 1 Name
    Core Zone Return Air Node,  !- Component 1 Inlet Node Name
    Core Zone Mixed Air Node,!- Component 1 Outlet Node Name
    Fan:VariableVolume,      !- Component 2 Object Type
    Core Zone Supply Fan,    !- Component 2 Name
    Core Zone Mixed Air Node,!- Component 2 Inlet Node Name
    Core Zone Supply Fan Outlet Node,  !- Component 2 Outlet Node Name
    EvaporativeCooler:Direct:ResearchSpecial,  !- Component 3 Object Type
    Core DEC,                !- Component 3 Name
    Core Zone Supply Fan Outlet Node,  !- Component 3 Inlet Node Name
    Core Zone DEC Outlet Node,  !- Component 3 Outlet Node Name
    EvaporativeCooler:Indirect:ResearchSpecial,  !- Component 4 Object Type
    Core IEC,                !- Component 4 Name
    Core Zone DEC Outlet Node,  !- Component 4 Inlet Node Name
    Core Zone IEC Outlet Node,  !- Component 4 Outlet Node Name
    CoilSystem:Cooling:DX,   !- Component 5 Object Type
    Core Zone DX Cooling Coil,  !- Component 5 Name
    Core Zone IEC Outlet Node,  !- Component 5 Inlet Node Name
    Core Zone CCoil Air Outlet Node,  !- Component 5 Outlet Node Name
    Coil:Cooling:Water,      !- Component 6 Object Type
    Core Zone CW Cooling Coil,  !- Component 6 Name
    Core Zone CCoil Air Outlet Node,  !- Component 6 Inlet Node Name
    Core Air Loop Outlet Node;  !- Component 6 Outlet Node Name

Branch,
    CW Supply Pump Branch,   !- Name
    ,                        !- Pressure Drop Curve Name
    Pump:VariableSpeed,      !- Component 1 Object Type
    CW Circ Pump,            !- Component 1 Name
    CW Supply Inlet Node,    !- Component 1 Inlet Node Name
    CW Pump Outlet Node;     !- Component 1 Outlet Node Name

Branch,
    CW Supply Chiller Branch,!- Name
    ,                        !- Pressure Drop Curve Name
    Chiller:Electric,        !- Component 1 Object Type
    Chiller,                 !- Component 1 Name
    Chiller Inlet Node,      !- Component 1 Inlet Node Name
    Chiller Outlet Node;     !- Component 1 Outlet Node Name

Branch,
    CW Supply Bypass Branch, !- Name
    ,                        !- Pressure Drop Curve Name
    Pipe:Adiabatic,          !- Component 1 Object Type
    CW Supply Side Bypass Pipe,  !- Component 1 Name
    CW Supply Bypass Inlet Node,  !- Component 1 Inlet Node Name
    CW Supply Bypass Outlet Node;  !- Component 1 Outlet Node Name

Branch,
    CW Supply Outlet Branch, !- Name
    ,                        !- Pressure Drop Curve Name
    Pipe:Adiabatic,          !- Component 1 Object Type
    CW Supply Side Outlet Pipe,  !- Component 1 Name
    CW Supply Side Exit Pipe Inlet Node,  !- Component 1 Inlet Node Name
    CW Supply Outlet Node;   !- Component 1 Outlet Node Name

Branch,
    CW Demand Inlet Branch,  !- Name
    ,                        !- Pressure Drop Curve Name
    Pipe:Adiabatic,          !- Component 1 Object Type
    CW Demand Side Inlet Pipe,  !- Component 1 Name
    CW Demand Inlet Node,    !- Component 1 Inlet Node Name
    CW Demand Entrance Pipe Outlet Node;  !- Component 1 Outlet Node Name

Branch,
    Core CW Cooling Coil Branch,  !- Name
    ,                        !- Pressure Drop Curve Name
    Coil:Cooling:Water,      !- Component 1 Object Type
    Core Zone CW Cooling Coil,  !- Component 1 Name
    Core CWCoil Water Inlet Node,  !- Component 1 Inlet Node Name
    Core CWCoil Water Outlet Node;  !- Component 1 Outlet Node Name

Branch,
    CW Demand Bypass Branch, !- Name
    ,                        !- Pressure Drop Curve Name
    Pipe:Adiabatic,          !- Component 1 Object Type
    CW Demand Side Bypass Pipe,  !- Component 1 Name
    CW Demand Bypass Inlet Node,  !- Component 1 Inlet Node Name
    CW Demand Bypass Outlet Node;  !- Component 1 Outlet Node Name

Branch,
    CW Demand Outlet Branch, !- Name
    ,                        !- Pressure Drop Curve Name
    Pipe:Adiabatic,          !- Component 1 Object Type
    CW Demand Side Outlet Pipe,  !- Component 1 Name
    CW Demand Exit Pipe Inlet Node,  !- Component 1 Inlet Node Name
    CW Demand Outlet Node;   !- Component 1 Outlet Node Name

Branch,
    Condenser Supply Pump Branch,  !- Name
    ,                        !- Pressure Drop Curve Name
    Pump:VariableSpeed,      !- Component 1 Object Type
    Cond Circ Pump,          !- Component 1 Name
    Condenser Supply Inlet Node,  !- Component 1 Inlet Node Name
    Condenser Pump Outlet Node;  !- Component 1 Outlet Node Name

Branch,
    Condenser Supply Tower Branch,  !- Name
    ,                        !- Pressure Drop Curve Name
    CoolingTower:VariableSpeed,  !- Component 1 Object Type
    Cooling Tower,           !- Component 1 Name
    Condenser Tower Inlet Node,  !- Component 1 Inlet Node Name
    Condenser Tower Outlet Node;  !- Component 1 Outlet Node Name

Branch,
    Condenser Supply Bypass Branch,  !- Name
    ,                        !- Pressure Drop Curve Name
    Pipe:Adiabatic,          !- Component 1 Object Type
    Condenser Supply Bypass Pipe,  !- Component 1 Name
    Cond Supply Bypass Inlet Node,  !- Component 1 Inlet Node Name
    Cond Supply Bypass Outlet Node;  !- Component 1 Outlet Node Name

Branch,
    Condenser Supply Outlet Branch,  !- Name
    ,                        !- Pressure Drop Curve Name
    Pipe:Adiabatic,          !- Component 1 Object Type
    Condenser Supply Outlet Pipe,  !- Component 1 Name
    Condenser Supply Exit Pipe Inlet Node,  !- Component 1 Inlet Node Name
    Condenser Supply Outlet Node;  !- Component 1 Outlet Node Name

Branch,
    Condenser Demand Inlet Branch,  !- Name
    ,                        !- Pressure Drop Curve Name
    Pipe:Adiabatic,          !- Component 1 Object Type
    Condenser Demand Inlet Pipe,  !- Component 1 Name
    Condenser Demand Inlet Node,  !- Component 1 Inlet Node Name
    Condenser Demand Entrance Pipe Outlet Node;  !- Component 1 Outlet Node Name

Branch,
    Condenser Demand Chiller Branch,  !- Name
    ,                        !- Pressure Drop Curve Name
    Chiller:Electric,        !- Component 1 Object Type
    Chiller,                 !- Component 1 Name
    Chiller Condenser Inlet Node,  !- Component 1 Inlet Node Name
    Chiller Condenser Outlet Node;  !- Component 1 Outlet Node Name

Branch,
    Condenser Demand Bypass Branch,  !- Name
    ,                        !- Pressure Drop Curve Name
    Pipe:Adiabatic,          !- Component 1 Object Type
    Condenser Demand Bypass Pipe,  !- Component 1 Name
    Cond Demand Bypass Inlet Node,  !- Component 1 Inlet Node Name
    Cond Demand Bypass Outlet Node;  !- Component 1 Outlet Node Name

Branch,
    Condenser Demand Outlet Branch,  !- Name
    ,                        !- Pressure Drop Curve Name
    Pipe:Adiabatic,          !- Component 1 Object Type
    Condenser Demand Outlet Pipe,  !- Component 1 Name
    Condenser Demand Exit Pipe Inlet Node,  !- Component 1 Inlet Node Name
    Condenser Demand Outlet Node;  !- Component 1 Outlet Node Name

AirLoopHVAC:OutdoorAirSystem,
    Core Zone OA System,     !- Name
    Core OA Controllers,     !- Controller List Name
    Core OA Equipment,       !- Outdoor Air Equipment List Name
    Core Avail List;         !- Availability Manager List Name

AirLoopHVAC:ControllerList,
    Core OA Controllers,     !- Name
    Controller:OutdoorAir,   !- Controller 1 Object Type
    Core OA Controller;      !- Controller 1 Name

Controller:OutdoorAir,
    Core OA Controller,      !- Name
    Core Relief Air Outlet Node,  !- Relief Air Outlet Node Name
    Core Zone Return Air Node,  !- Return Air Node Name
    Core Zone Mixed Air Node,!- Mixed Air Node Name
    Core Outside Air Inlet Node,  !- Actuator Node Name
    autosize,                !- Minimum Outdoor Air Flow Rate {m3/s}
    autosize,                !- Maximum Outdoor Air Flow Rate {m3/s}
    FixedDryBulb,            !- Economizer Control Type
    ,                        !- Economizer Control Action Type
    23.0,                    !- Economizer Maximum Limit Dry-Bulb Temperature {C}
    ,                        !- Economizer Maximum Limit Enthalpy {J/kg}
    13.5,                    !- Economizer Maximum Limit Dewpoint Temperature {C}
    ,                        !- Electronic Enthalpy Limit Curve Name
    -20.0,                   !- Economizer Minimum Limit Dry-Bulb Temperature {C}
    NoLockout,               !- Lockout Type
    FixedMinimum,            !- Minimum Limit Type
    OAFractionSched;         !- Minimum Outdoor Air Schedule Name

Schedule:Compact,
    OAFractionSched,         !- Name
    Fraction,                !- Schedule Type Limits Name
    Through: 12/31,          !- Field 1
    For: AllDays,            !- Field 2
    Until: 7:00, 0.05,       !- Field 4
    Until: 18:00, 1.0,       !- Field 6
    Until: 24:00, 0.05;      !- Field 8

Coil:Cooling:DX:SingleSpeed,
    Core DX Cooling Coil,    !- Name
    CoreDXCCoilAvailSched,   !- Availability Schedule Name
    autosize,                !- Gross Rated Total Cooling Capacity {W}
    autosize,                !- Gross Rated Sensible Heat Ratio
    3.0,                     !- Gross Rated Cooling COP {W/W}
    autosize,                !- Rated Air Flow Rate {m3/s}
    ,                        !- Rated Evaporator Fan Power Per Volume Flow Rate {W/(m3/s)}
    Core Zone IEC Outlet Node,  !- Air Inlet Node Name
    Core Zone CCoil Air Outlet Node,  !- Air Outlet Node Name
    DXSysACCoolCapFT,        !- Total Cooling Capacity Function of Temperature Curve Name
    DXSysACCoolCapFFF,       !- Total Cooling Capacity Function of Flow Fraction Curve Name
    DXSysACCoolEIRFT,        !- Energy Input Ratio Function of Temperature Curve Name
    DXSysACCoolEIRFFF,       !- Energy Input Ratio Function of Flow Fraction Curve Name
    DXSysACCoolPLFFPLR,      !- Part Load Fraction Correlation Curve Name
    ,                        !- Minimum Outdoor Dry-Bulb Temperature for Compressor Operation {C}
    ,                        !- Nominal Time for Condensate Removal to Begin {s}
    ,                        !- Ratio of Initial Moisture Evaporation Rate and Steady State Latent Capacity {dimensionless}
    ,                        !- Maximum Cycling Rate {cycles/hr}
    ,                        !- Latent Capacity Time Constant {s}
    ,                        !- Condenser Air Inlet Node Name
    ,                        !- Condenser Type
    ,                        !- Evaporative Condenser Effectiveness {dimensionless}
    ,                        !- Evaporative Condenser Air Flow Rate {m3/s}
    ,                        !- Evaporative Condenser Pump Rated Power Consumption {W}
    ,                        !- Crankcase Heater Capacity {W}
    ,                        !- Maximum Outdoor Dry-Bulb Temperature for Crankcase Heater Operation {C}
    ,                        !- Supply Water Storage Tank Name
    ,                        !- Condensate Collection Water Storage Tank Name
    ,                        !- Basin Heater Capacity {W/K}
    ,                        !- Basin Heater Setpoint Temperature {C}
    ,                        !- Basin Heater Operating Schedule Name
    ,                        !- Sensible Heat Ratio Function of Temperature Curve Name
    ,                        !- Sensible Heat Ratio Function of Flow Fraction Curve Name
    Yes;                     !- Report ASHRAE Standard 127 Performance Ratings

Schedule:Compact,
    CoreDXCCoilAvailSched,   !- Name
    Fraction,                !- Schedule Type Limits Name
    Through: 12/31,          !- Field 1
    For: AllDays,            !- Field 2
    Until:  7:00, 1.0,       !- Field 4
    Until: 17:00, 1.0,       !- Field 6
    Until: 24:00, 1.0;       !- Field 8

OutdoorAir:Mixer,
    Core OAM Box,            !- Name
    Core Zone Mixed Air Node,!- Mixed Air Node Name
    Core Outside Air Inlet Node,  !- Outdoor Air Stream Node Name
    Core Relief Air Outlet Node,  !- Relief Air Stream Node Name
    Core Zone Return Air Node;  !- Return Air Stream Node Name

AirLoopHVAC:ZoneSplitter,
    Core Supply Air Splitter,!- Name
    Core Plenum Outlet Node, !- Inlet Node Name
    Core Zone ATU Inlet Node;!- Outlet 1 Node Name

AirLoopHVAC:SupplyPlenum,
    Core Supply Plenum,      !- Name
    CORE,                    !- Zone Name
    Core Plenum Zone Node,   !- Zone Node Name
    Core Zone Equipment Inlet Node,  !- Inlet Node Name
    Core Plenum Outlet Node; !- Outlet 1 Node Name

CoilSystem:Cooling:DX,
    Core Zone DX Cooling Coil,  !- Name
    CoreDXCCoilAvailSched,   !- Availability Schedule Name
    Core Zone IEC Outlet Node,  !- DX Cooling Coil System Inlet Node Name
    Core Zone CCoil Air Outlet Node,  !- DX Cooling Coil System Outlet Node Name
    Core Zone CCoil Air Outlet Node,  !- DX Cooling Coil System Sensor Node Name
    Coil:Cooling:DX:SingleSpeed,  !- Cooling Coil Object Type
    Core DX Cooling Coil,    !- Cooling Coil Name
    None,                    !- Dehumidification Control Type
    yes,                     !- Run on Sensible Load
    No;                      !- Run on Latent Load

EvaporativeCooler:Indirect:ResearchSpecial,
    Core IEC,                !- Name
    ALWAYS_ON,               !- Availability Schedule Name
    0.70,                    !- Cooler Wetbulb Design Effectiveness
    IECEffWBFlowMod,         !- Wetbulb Effectiveness Flow Ratio Modifier Curve Name
    0.72,                    !- Cooler Drybulb Design Effectiveness
    IECEffDBFlowMod,         !- Drybulb Effectiveness Flow Ratio Modifier Curve Name
    autosize,                !- Recirculating Water Pump Design Power {W}
    150.0,                   !- Water Pump Power Sizing Factor {W/(m3/s)}
    IECPumpPowerMod,         !- Water Pump Power Modifier Curve Name
    autosize,                !- Secondary Air Design Flow Rate {m3/s}
    1.4,                     !- Secondary Air Flow Scaling Factor {dimensionless}
    autosize,                !- Secondary Air Fan Design Power {W}
    200.0,                   !- Secondary Air Fan Sizing Specific Power {W/(m3/s)}
    IECFanPowerMod,          !- Secondary Air Fan Power Modifier Curve Name
    Core Zone DEC Outlet Node,  !- Primary Air Inlet Node Name
    Core Zone IEC Outlet Node,  !- Primary Air Outlet Node Name
    autosize,                !- Primary Air Design Flow Rate {m3/s}
    0.9,                     !- Dewpoint Effectiveness Factor
    Core IEC Secondary Air Inlet Node,  !- Secondary Air Inlet Node Name
    Core IEC Secondary Air Outlet Node,  !- Secondary Air Outlet Node Name
    Core Zone IEC Outlet Node,  !- Sensor Node Name
    ,                        !- Relief Air Inlet Node Name
    ,                        !- Water Supply Storage Tank Name
    0.0,                     !- Drift Loss Fraction
    ,                        !- Blowdown Concentration Ratio
    20.0,                    !- Evaporative Operation Minimum Limit Secondary Air Drybulb Temperature
    24.0,                    !- Evaporative Operation Maximum Limit Outdoor Wetbulb Temperature
    50.0;                    !- Dry Operation Maximum Limit Outdoor Drybulb Temperature

Schedule:Compact,
    ALWAYS_ON,               !- Name
    Fraction,                !- Schedule Type Limits Name
    Through: 12/31,          !- Field 1
    For: AllDays,            !- Field 2
    Until: 24:00, 1.0;       !- Field 4

EvaporativeCooler:Direct:ResearchSpecial,
    Core DEC,                !- Name
    ALWAYS_ON,               !- Availability Schedule Name
    0.7,                     !- Cooler Design Effectiveness
    ,                        !- Effectiveness Flow Ratio Modifier Curve Name
    autosize,                !- Primary Air Design Flow Rate {m3/s}
    30.0,                    !- Recirculating Water Pump Design Power {W}
    ,                        !- Water Pump Power Sizing Factor {W/(m3/s)}
    ,                        !- Water Pump Power Modifier Curve Name
    Core Zone Supply Fan Outlet Node,  !- Air Inlet Node Name
    Core Zone DEC Outlet Node,  !- Air Outlet Node Name
    Core Zone DEC Outlet Node,  !- Sensor Node Name
    ,                        !- Water Supply Storage Tank Name
    0.0,                     !- Drift Loss Fraction
    3.0,                     !- Blowdown Concentration Ratio
    16.0,                    !- Evaporative Operation Minimum Drybulb Temperature
    18.0,                    !- Evaporative Operation Maximum Limit Wetbulb Temperature
    20.0;                    !- Evaporative Operation Maximum Limit Drybulb Temperature

Controller:WaterCoil,
    Core CW Coil Controller, !- Name
    Temperature,             !- Control Variable
    Reverse,                 !- Action
    FLOW,                    !- Actuator Variable
    Core Air Loop Outlet Node,  !- Sensor Node Name
    Core CWCoil Water Inlet Node,  !- Actuator Node Name
    autosize,                !- Controller Convergence Tolerance {deltaC}
    autosize,                !- Maximum Actuated Flow {m3/s}
    0.0;                     !- Minimum Actuated Flow {m3/s}

AirLoopHVAC,
    Core Zone Air System,    !- Name
    Core Sys Controllers,    !- Controller List Name
    Core Avail List,         !- Availability Manager List Name
    autosize,                !- Design Supply Air Flow Rate {m3/s}
    Core Zone Air Loop Branches,  !- Branch List Name
    ,                        !- Connector List Name
    Core Zone Return Air Node,  !- Supply Side Inlet Node Name
    Core Return Air Mixer Outlet,  !- Demand Side Outlet Node Name
    Core Zone Equipment Inlet Node,  !- Demand Side Inlet Node Names
    Core Air Loop Outlet Node;  !- Supply Side Outlet Node Names

AirLoopHVAC:ControllerList,
    Core Sys Controllers,    !- Name
    Controller:WaterCoil,    !- Controller 1 Object Type
    Core CW Coil Controller; !- Controller 1 Name

AvailabilityManagerAssignmentList,
    Core Avail List,         !- Name
    AvailabilityManager:Scheduled,  !- Availability Manager 1 Object Type
    Core Avail;              !- Availability Manager 1 Name

AvailabilityManager:Scheduled,
    Core Avail,              !- Name
    FanAndCoilAvailSched;    !- Schedule Name

BranchList,
    Core Zone Air Loop Branches,  !- Name
    Core Zone Air Loop Main Branch;  !- Branch 1 Name

BranchList,
    Cooling Supply Side Branches,  !- Name
    CW Supply Pump Branch,   !- Branch 1 Name
    CW Supply Chiller Branch,!- Branch 2 Name
    CW Supply Bypass Branch, !- Branch 3 Name
    CW Supply Outlet Branch; !- Branch 4 Name

BranchList,
    Cooling Demand Side Branches,  !- Name
    CW Demand Inlet Branch,  !- Branch 1 Name
    Core CW Cooling Coil Branch,  !- Branch 2 Name
    CW Demand Bypass Branch, !- Branch 3 Name
    CW Demand Outlet Branch; !- Branch 4 Name

BranchList,
    Condenser Supply Side Branches,  !- Name
    Condenser Supply Pump Branch,  !- Branch 1 Name
    Condenser Supply Tower Branch,  !- Branch 2 Name
    Condenser Supply Bypass Branch,  !- Branch 3 Name
    Condenser Supply Outlet Branch;  !- Branch 4 Name

BranchList,
    Condenser Demand Side Branches,  !- Name
    Condenser Demand Inlet Branch,  !- Branch 1 Name
    Condenser Demand Bypass Branch,  !- Branch 2 Name
    Condenser Demand Chiller Branch,  !- Branch 3 Name
    Condenser Demand Outlet Branch;  !- Branch 4 Name

AirLoopHVAC:SupplyPath,
    CoreSysSupplyPath,       !- Name
    Core Zone Equipment Inlet Node,  !- Supply Air Path Inlet Node Name
    AirLoopHVAC:SupplyPlenum,!- Component 1 Object Type
    Core Supply Plenum,      !- Component 1 Name
    AirLoopHVAC:ZoneSplitter,!- Component 2 Object Type
    Core Supply Air Splitter;!- Component 2 Name

AirLoopHVAC:ZoneMixer,
    Core Return Air Mixer,   !- Name
    Core Return Air Mixer Outlet Node,  !- Outlet Node Name
    Core Zone Return Node;   !- Inlet 1 Node Name

AirLoopHVAC:ReturnPath,
    CoreSysReturnPath,       !- Name
    Core Return Air Mixer Outlet Node,  !- Return Air Path Outlet Node Name
    AirLoopHVAC:ZoneMixer,   !- Component 1 Object Type
    Core Return Air Mixer;   !- Component 1 Name

AirLoopHVAC:OutdoorAirSystem:EquipmentList,
    Core OA Equipment,       !- Name
    OutdoorAir:Mixer,        !- Component 1 Object Type
    Core OAM Box;            !- Component 1 Name

Connector:Splitter,
    CW Loop Supply Splitter, !- Name
    CW Supply Pump Branch,   !- Inlet Branch Name
    CW Supply Chiller Branch,!- Outlet Branch 1 Name
    CW Supply Bypass Branch; !- Outlet Branch 2 Name

Connector:Splitter,
    CW Loop Demand Splitter, !- Name
    CW Demand Inlet Branch,  !- Inlet Branch Name
    Core CW Cooling Coil Branch,  !- Outlet Branch 1 Name
    CW Demand Bypass Branch; !- Outlet Branch 2 Name

Connector:Splitter,
    Condenser Supply Splitter,  !- Name
    Condenser Supply Pump Branch,  !- Inlet Branch Name
    Condenser Supply Tower Branch,  !- Outlet Branch 1 Name
    Condenser Supply Bypass Branch;  !- Outlet Branch 2 Name

Connector:Splitter,
    Condenser Demand Splitter,  !- Name
    Condenser Demand Inlet Branch,  !- Inlet Branch Name
    Condenser Demand Chiller Branch,  !- Outlet Branch 1 Name
    Condenser Demand Bypass Branch;  !- Outlet Branch 2 Name

Connector:Mixer,
    CW Loop Supply Mixer,    !- Name
    CW Supply Outlet Branch, !- Outlet Branch Name
    CW Supply Chiller Branch,!- Inlet Branch 1 Name
    CW Supply Bypass Branch; !- Inlet Branch 2 Name

Connector:Mixer,
    CW Loop Demand Mixer,    !- Name
    CW Demand Outlet Branch, !- Outlet Branch Name
    Core CW Cooling Coil Branch,  !- Inlet Branch 1 Name
    CW Demand Bypass Branch; !- Inlet Branch 2 Name

Connector:Mixer,
    Condenser Supply Mixer,  !- Name
    Condenser Supply Outlet Branch,  !- Outlet Branch Name
    Condenser Supply Tower Branch,  !- Inlet Branch 1 Name
    Condenser Supply Bypass Branch;  !- Inlet Branch 2 Name

Connector:Mixer,
    Condenser Demand Mixer,  !- Name
    Condenser Demand Outlet Branch,  !- Outlet Branch Name
    Condenser Demand Chiller Branch,  !- Inlet Branch 1 Name
    Condenser Demand Bypass Branch;  !- Inlet Branch 2 Name

ConnectorList,
    Cooling Supply Side Connectors,  !- Name
    Connector:Splitter,      !- Connector 1 Object Type
    CW Loop Supply Splitter, !- Connector 1 Name
    Connector:Mixer,         !- Connector 2 Object Type
    CW Loop Supply Mixer;    !- Connector 2 Name

ConnectorList,
    Cooling Demand Side Connectors,  !- Name
    Connector:Splitter,      !- Connector 1 Object Type
    CW Loop Demand Splitter, !- Connector 1 Name
    Connector:Mixer,         !- Connector 2 Object Type